PIM447
  PyMOL2.5          3D                             0

  8  8  0  0  0  0  0  0  0  0999 V2000
  -44.7350   -1.7710    1.9400 C   0  0  0  0  0  0  0  0  0  0  0  0
  -45.6500   -0.7960    2.3210 C   0  0  0  0  0  0  0  0  0  0  0  0
  -46.1530   -0.6720    3.5920 C   0  0  0  0  0  0  0  0  0  0  0  0
  -45.7270   -1.5680    4.5600 C   0  0  0  0  0  0  0  0  0  0  0  0
  -44.8000   -2.5500    4.2510 C   0  0  0  0  0  0  0  0  0  0  0  0
  -44.3300   -2.6200    2.9600 C   0  0  0  0  0  0  0  0  0  0  0  0
  -46.0540    0.0830    1.3780 F   0  0  0  0  0  0  0  0  0  0  0  0
  -43.3970   -3.5570    2.6630 F   0  0  0  0  0  0  0  0  0  0  0  0
  1  2  4  0  0  0  0
  1  6  4  0  0  0  0
  2  3  4  0  0  0  0
  2  7  1  0  0  0  0
  3  4  4  0  0  0  0
  4  5  4  0  0  0  0
  5  6  4  0  0  0  0
  6  8  1  0  0  0  0
M  END
$$$$
